37
QBOLVLBSUGJHGB-WDSKDSINSA-M	11085232	-1802.598001430673
C	  3.43402234	 -0.16874390	 -0.28570154	-0.28000000000000025
C	  2.11334238	 -0.94592873	 -0.48306108	-0.33999999999999986
C	 -3.77777347	 -1.50050428	 -0.18903530	-0.21999999999999975
C	 -2.25333874	  0.92072391	 -1.13745632	-0.4400000000000004
C	  4.24429164	 -0.59360823	  0.95450616	-0.05999999999999961
C	 -1.34819128	  0.37205921	 -0.03299654	-0.07000000000000028
C	  0.87942763	 -0.26728653	  0.11307211	   0.54
C	 -4.69295531	 -2.70978698	 -0.07216822	0.5800000000000001
C	 -2.02278844	 -0.49938791	  1.05324612	0.5199999999999996
C	  5.61938172	  0.11451281	  0.93136436	0.5999999999999996
N	  3.56912067	 -0.26243823	  2.22252255	-0.8499999999999996
N	 -3.04242166	 -1.26968876	  1.02876422	-0.5199999999999996
N	 -0.20742585	 -0.32819478	 -0.61258661	-0.5599999999999996
O	  1.00690791	  0.29377660	  1.27731118	-0.6899999999999995
O	 -5.82436295	 -2.76957170	 -0.51414904	-0.5199999999999996
O	 -4.10173293	 -3.77157275	  0.52293418	-0.5700000000000003
O	 -1.35708072	 -0.41406196	  2.22367933	-0.6699999999999999
O	  6.45353820	 -0.07037656	  0.06825084	-0.5500000000000007
O	  5.77921260	  0.96387632	  1.95275646	-0.6199999999999992
S	 -0.66770496	  3.59391961	 -0.86068549	-0.19000000000000128
S	 -1.40280019	  2.17191427	 -2.20771331	-0.019999999999999574
H	  3.22737735	  0.90701659	 -0.21743098	0.16000000000000003
H	  4.09082399	 -0.31371769	 -1.14969898	0.16000000000000003
H	  2.20920473	 -1.94228474	 -0.02449939	0.16000000000000003
H	  1.92021423	 -1.10995835	 -1.54676713	0.15000000000000002
H	 -3.12558675	 -1.71909608	 -1.05253127	0.19999999999999996
H	 -4.43696608	 -0.67275094	 -0.48199729	0.18000000000000005
H	 -2.51628434	  0.15510514	 -1.87247501	0.20999999999999996
H	 -3.16759100	  1.36257516	 -0.72919429	0.19999999999999996
H	  4.45276392	 -1.66911791	  0.86625683	0.18000000000000005
H	 -1.01893718	  1.25509194	  0.53795710	0.15000000000000002
H	  2.58470134	  0.00489542	  2.03313493	   0.37
H	  3.56280953	 -1.06154721	  2.85094509	0.33999999999999997
H	 -4.77540849	 -4.47647174	  0.51023473	0.43999999999999995
H	 -0.45012892	 -0.02454950	  2.03107429	0.43999999999999995
H	  4.91251132	  0.83829143	  2.45818802	0.43999999999999995
H	  0.44696563	  2.94496896	 -0.44020211	0.16000000000000003
-37.584	-31.759	-27.129	-12.912	-0.000	-0.000	-0.000	-0.000	0.000	0.000	16.707	55.036	65.341	71.168	83.816	92.885	106.197	117.157	155.942	175.792	189.824	205.973	224.052	256.912	282.604	301.235	334.333	365.425	371.996	377.741	403.662	421.155	438.655	456.505	478.358	489.059	528.223	546.829	557.430	596.439	625.285	638.156	652.163	698.203	709.236	730.536	742.326	755.667	839.356	849.929	879.689	888.108	896.219	905.738	921.457	952.242	967.825	1007.764	1015.361	1034.406	1038.706	1056.453	1074.731	1097.698	1122.847	1137.145	1191.297	1194.764	1212.174	1243.309	1245.433	1265.023	1282.168	1285.409	1306.249	1335.246	1359.684	1366.439	1381.200	1384.392	1404.357	1408.844	1412.333	1459.539	1472.839	1495.807	1502.005	1513.984	1524.351	1543.654	1621.923	1730.429	1763.351	1827.057	1852.367	2615.657	2971.725	2980.396	3011.312	3024.513	3044.072	3050.642	3053.494	3069.954	3073.286	3099.871	3112.574	3137.464	3196.248	3542.858	3684.864	
C(SS)C(C(NCC([O-])=O)=O)NC(=O)CCC([N+])C([O-])=O	C(CC(=O)[N][C@@H](CSS)/C(=N\CC(=O)O)/O)[C@@H](C(=O)O)N
InChI=1S/C10H17N3O6S2/c11-5(10(18)19)1-2-7(14)13-6(4-21-20)9(17)12-3-8(15)16/h5-6,20H,1-4,11H2,(H,12,17)(H,13,14)(H,15,16)(H,18,19)/p-1/t5-,6-/m0/s1	InChI=1S/C10H16N3O6S2/c11-5(10(18)19)1-2-7(14)13-6(4-21-20)9(17)12-3-8(15)16/h5-6,20H,1-4,11H2,(H,12,17)(H,15,16)(H,18,19)/t5-,6-/m0/s1